Version 4
SHEET 1 880 688
WIRE 304 192 288 192
WIRE 304 208 304 192
WIRE 416 208 304 208
WIRE 416 224 304 224
WIRE 304 288 304 224
WIRE 304 288 288 288
FLAG 208 160 A1
IOPIN 208 160 In
FLAG 208 256 A0
IOPIN 208 256 In
FLAG 208 192 B1
IOPIN 208 192 In
FLAG 208 288 B0
IOPIN 208 288 In
FLAG 416 240 MOD1
IOPIN 416 240 In
FLAG 480 208 VALUE
IOPIN 480 208 Out
SYMBOL Digital\\xor 256 112 R0
SYMATTR InstName A1
SYMBOL Digital\\xor 256 208 R0
SYMATTR InstName A2
SYMBOL Digital\\and 448 160 R0
SYMATTR InstName A3
TEXT -600 484 Left 2 !.tran 90u
