Version 4
SHEET 1 880 680
WIRE 256 96 192 96
WIRE 240 192 192 192
WIRE 256 224 256 96
WIRE 320 224 256 224
WIRE 240 240 240 192
WIRE 320 240 240 240
WIRE 320 256 240 256
WIRE 320 272 256 272
WIRE 240 288 240 256
WIRE 240 288 192 288
WIRE 256 384 256 272
WIRE 256 384 192 384
FLAG 64 96 A1
IOPIN 64 96 In
FLAG 128 416 A1
IOPIN 128 416 In
FLAG 64 192 A0
IOPIN 64 192 In
FLAG 128 320 A0
IOPIN 128 320 In
FLAG 128 128 B1
IOPIN 128 128 In
FLAG 64 384 B1
IOPIN 64 384 In
FLAG 128 224 B0
IOPIN 128 224 In
FLAG 64 288 B0
IOPIN 64 288 In
FLAG 384 240 R
IOPIN 384 240 Out
SYMBOL Digital\\or 160 48 R0
SYMATTR InstName A1
SYMBOL Digital\\or 160 144 R0
SYMATTR InstName A2
SYMBOL Digital\\or 160 240 R0
SYMATTR InstName A3
SYMBOL Digital\\or 160 336 R0
SYMATTR InstName A4
SYMBOL Digital\\and 352 192 R0
SYMATTR InstName A5
SYMBOL Digital\\inv 64 32 R0
SYMATTR InstName A6
SYMBOL Digital\\inv 64 128 R0
SYMATTR InstName A7
SYMBOL Digital\\inv 64 224 R0
SYMATTR InstName A8
SYMBOL Digital\\inv 64 320 R0
SYMATTR InstName A9
