Version 4
SHEET 1 880 688
FLAG 176 80 A0
IOPIN 176 80 In
FLAG 240 256 A0
IOPIN 240 256 In
FLAG 176 336 A0
IOPIN 176 336 In
FLAG 240 512 A0
IOPIN 240 512 In
FLAG 176 144 A1
IOPIN 176 144 In
FLAG 176 192 A1
IOPIN 176 192 In
FLAG 240 400 A1
IOPIN 240 400 In
FLAG 240 576 A1
IOPIN 240 576 In
FLAG 240 112 ENABLE
IOPIN 240 112 In
FLAG 240 224 ENABLE
IOPIN 240 224 In
FLAG 240 368 ENABLE
IOPIN 240 368 In
FLAG 240 544 ENABLE
IOPIN 240 544 In
FLAG 304 96 B0
IOPIN 304 96 Out
FLAG 304 208 B1
IOPIN 304 208 Out
FLAG 304 352 B2
IOPIN 304 352 Out
FLAG 304 528 B3
IOPIN 304 528 Out
SYMBOL Digital\\and 272 48 R0
WINDOW 0 2 15 Left 2
SYMATTR InstName A1
SYMBOL Digital\\and 272 160 R0
WINDOW 0 1 19 Left 2
SYMATTR InstName A2
SYMBOL Digital\\and 272 304 R0
WINDOW 0 -1 16 Left 2
SYMATTR InstName A3
SYMBOL Digital\\and 272 480 R0
WINDOW 0 -2 16 Left 2
SYMATTR InstName A4
SYMBOL Digital\\inv 176 16 R0
WINDOW 0 23 46 Left 2
SYMATTR InstName A5
SYMBOL Digital\\inv 176 80 R0
WINDOW 0 23 47 Left 2
SYMATTR InstName A6
SYMBOL Digital\\inv 176 128 R0
WINDOW 0 24 46 Left 2
SYMATTR InstName A7
SYMBOL Digital\\inv 176 272 R0
WINDOW 0 22 46 Left 2
SYMATTR InstName A8
