Version 4
SHEET 1 3164 1240
WIRE 128 128 48 128
WIRE 672 128 592 128
WIRE 1760 144 1648 144
WIRE 48 160 48 128
WIRE 48 160 32 160
WIRE 592 160 592 128
WIRE 592 160 576 160
WIRE 1504 192 1456 192
WIRE 1760 192 1760 144
WIRE 1840 192 1760 192
WIRE 128 512 48 512
WIRE 672 512 592 512
WIRE 48 544 48 512
WIRE 48 544 32 544
WIRE 592 544 592 512
WIRE 592 544 576 544
FLAG -912 400 0
FLAG -912 320 CLK
IOPIN -912 320 Out
FLAG 128 176 CLK
IOPIN 128 176 In
FLAG 672 176 CLK
IOPIN 672 176 In
FLAG 288 128 A0
IOPIN 288 128 Out
FLAG 832 128 A1
IOPIN 832 128 Out
FLAG 128 560 CLK
IOPIN 128 560 In
FLAG 672 560 CLK
IOPIN 672 560 In
FLAG 288 512 B0
IOPIN 288 512 Out
FLAG 832 512 B1
IOPIN 832 512 Out
FLAG 1504 128 A0
IOPIN 1504 128 In
FLAG 1504 160 B0
IOPIN 1504 160 In
FLAG 1648 176 Y0
IOPIN 1648 176 Out
FLAG 1984 176 Y1
IOPIN 1984 176 Out
FLAG 1840 128 A1
IOPIN 1840 128 In
FLAG 1840 160 B1
IOPIN 1840 160 In
FLAG 1984 144 C
IOPIN 1984 144 Out
FLAG -32 1168 CLK
IOPIN -32 1168 In
FLAG 320 1168 CLK
IOPIN 320 1168 In
FLAG -32 1120 Y0
IOPIN -32 1120 In
FLAG 320 1120 Y1
IOPIN 320 1120 In
FLAG 640 1168 CLK
IOPIN 640 1168 In
FLAG 640 1120 C
IOPIN 640 1120 In
FLAG 208 80 PRESET
IOPIN 208 80 In
FLAG 208 608 RESET
IOPIN 208 608 In
FLAG 752 608 RESET
IOPIN 752 608 In
FLAG 752 224 RESET
IOPIN 752 224 In
FLAG 208 224 RESET
IOPIN 208 224 In
FLAG -1296 400 0
FLAG -912 736 0
FLAG -928 592 RESET
IOPIN -928 592 Out
FLAG -1296 320 ENABLE
IOPIN -1296 320 Out
FLAG -1296 736 0
FLAG -1312 592 PRESET
IOPIN -1312 592 Out
FLAG 1536 912 MOD0
IOPIN 1536 912 Out
FLAG 1536 944 MOD1
IOPIN 1536 944 Out
FLAG 1536 976 MOD2
IOPIN 1536 976 Out
FLAG 1536 1008 MOD3
IOPIN 1536 1008 Out
FLAG 1376 944 SEL0
IOPIN 1376 944 In
FLAG 1376 976 SEL1
IOPIN 1376 976 In
FLAG 752 80 PRESET
IOPIN 752 80 In
FLAG 752 464 PRESET
IOPIN 752 464 In
FLAG 208 464 PRESET
IOPIN 208 464 In
FLAG -1296 -192 I0
IOPIN -1296 -192 Out
FLAG -1296 -16 I2
IOPIN -1296 -16 Out
FLAG -912 -192 I1
IOPIN -912 -192 Out
FLAG -912 -16 I3
IOPIN -912 -16 Out
FLAG -1296 -112 0
FLAG -912 -112 0
FLAG -912 64 0
FLAG -1296 64 0
FLAG -80 176 I2
IOPIN -80 176 In
FLAG 1216 80 A0
IOPIN 1216 80 In
FLAG 1216 112 A1
IOPIN 1216 112 In
FLAG 1216 160 B0
IOPIN 1216 160 In
FLAG 1216 192 B1
IOPIN 1216 192 In
FLAG -80 144 A0
IOPIN -80 144 In
FLAG -16 208 ENABLE
IOPIN -16 208 In
FLAG 464 176 I3
IOPIN 464 176 In
FLAG 464 144 A1
IOPIN 464 144 In
FLAG 528 208 ENABLE
IOPIN 528 208 In
FLAG -80 560 I0
IOPIN -80 560 In
FLAG -80 528 B0
IOPIN -80 528 In
FLAG -16 592 ENABLE
IOPIN -16 592 In
FLAG 464 560 I1
IOPIN 464 560 In
FLAG 464 528 B1
IOPIN 464 528 In
FLAG 528 592 ENABLE
IOPIN 528 592 In
SYMBOL Digital\\dflop 208 80 R0
WINDOW 0 24 -19 Left 2
SYMATTR InstName A0
SYMBOL Digital\\dflop 752 80 R0
WINDOW 0 28 -16 Left 2
SYMATTR InstName A1
SYMBOL voltage -912 304 R0
WINDOW 123 0 0 Left 0
WINDOW 39 0 0 Left 0
SYMATTR InstName V1
SYMATTR Value PULSE(0 1 1u 0 0 1u 2u)
SYMBOL Digital\\dflop 208 464 R0
WINDOW 0 31 -19 Left 2
SYMATTR InstName B0
SYMBOL Digital\\dflop 752 464 R0
WINDOW 0 29 -18 Left 2
SYMATTR InstName B1
SYMBOL full_adder 1568 160 R0
SYMATTR InstName X1
SYMBOL full_adder 1904 160 R0
SYMATTR InstName X2
SYMBOL Digital\\dflop 48 1072 R0
SYMATTR InstName Y0
SYMBOL Digital\\dflop 400 1072 R0
SYMATTR InstName Y1
SYMBOL Digital\\dflop 720 1072 R0
SYMATTR InstName C
SYMBOL voltage -912 640 R0
WINDOW 123 0 0 Left 0
WINDOW 39 0 0 Left 0
SYMATTR InstName V2
SYMATTR Value PULSE(0 1 10u 0 0)
SYMBOL voltage -1296 304 R0
WINDOW 123 0 0 Left 0
WINDOW 39 0 0 Left 0
SYMATTR InstName V3
SYMATTR Value PULSE(0 1 10u 0 0 70u 140u)
SYMBOL voltage -1296 640 R0
WINDOW 123 0 0 Left 0
WINDOW 39 0 0 Left 0
SYMATTR InstName V4
SYMATTR Value PULSE(0 1 10u 0 0 100u 200u)
SYMBOL decoder_with_enable_2x4 1456 944 R0
WINDOW 0 1 -92 Bottom 2
SYMATTR InstName X3
SYMBOL voltage -1296 -208 R0
WINDOW 123 0 0 Left 0
WINDOW 39 0 0 Left 0
SYMATTR InstName INPUT0
SYMATTR Value PULSE(0 1 105u 0 0 5u 10u)
SYMBOL voltage -1296 -32 R0
WINDOW 123 0 0 Left 0
WINDOW 39 0 0 Left 0
SYMATTR InstName INPUT2
SYMATTR Value PULSE(0 1 120u 0 0 20u 40u)
SYMBOL voltage -912 -32 R0
WINDOW 123 0 0 Left 0
WINDOW 39 0 0 Left 0
SYMATTR InstName INPUT3
SYMATTR Value PULSE(0 1 140u 0 0 40u 80u)
SYMBOL voltage -912 -208 R0
WINDOW 123 0 0 Left 0
WINDOW 39 0 0 Left 0
SYMATTR InstName INPUT1
SYMATTR Value PULSE(0 1 110u 0 0 10u 20u)
SYMBOL comparator 1296 144 R0
WINDOW 0 10 -120 Bottom 2
SYMATTR InstName X4
SYMBOL multiplexer_1x2 -16 160 R0
WINDOW 0 -9 -82 Bottom 2
SYMATTR InstName X5
SYMBOL multiplexer_1x2 528 160 R0
WINDOW 0 -9 -82 Bottom 2
SYMATTR InstName X6
SYMBOL multiplexer_1x2 -16 544 R0
WINDOW 0 -9 -82 Bottom 2
SYMATTR InstName X7
SYMBOL multiplexer_1x2 528 544 R0
WINDOW 0 -9 -82 Bottom 2
SYMATTR InstName X8
TEXT -232 -32 Left 6 ;A
TEXT -232 336 Left 6 ;B
TEXT 48 -184 Left 7 ;REGISTERS
TEXT 1560 16 Left 2 ;Semplice sommatore a 2 bit
TEXT -32 968 Left 2 ;Salvo il valore di uscita dalla somma in un registro, salvo anche il C? SI
TEXT -112 1024 Left 6 ;R
TEXT -984 856 Left 2 !.tran 260u
TEXT 1232 800 Left 2 ;Decoder per decidere quale MOD abilitare
TEXT -1632 -304 Left 2 ;Delay iniziale delle onde quadre impostato a 100u di base. Bisogna capire come comportarsi con il tempo di salita o discesa
TEXT -1432 520 Left 2 ;Attenzione!! PRESET e RESET sono al momento scollegati per test di caso base
TEXT 240 -96 Left 2 ;sembrerebbero giusti
