Version 4
SHEET 1 3164 1160
WIRE 1760 144 1648 144
WIRE 1504 192 1456 192
WIRE 1760 192 1760 144
WIRE 1840 192 1760 192
FLAG -608 400 0
FLAG -608 320 CLK
IOPIN -608 320 Out
FLAG 128 176 CLK
IOPIN 128 176 In
FLAG 480 176 CLK
IOPIN 480 176 In
FLAG 288 128 A0
IOPIN 288 128 Out
FLAG 640 128 A1
IOPIN 640 128 Out
FLAG 128 560 CLK
IOPIN 128 560 In
FLAG 480 560 CLK
IOPIN 480 560 In
FLAG 288 512 B0
IOPIN 288 512 Out
FLAG 640 512 B1
IOPIN 640 512 Out
FLAG 1504 128 A0
IOPIN 1504 128 In
FLAG 1504 160 B0
IOPIN 1504 160 In
FLAG 1648 176 Y0
IOPIN 1648 176 Out
FLAG 1984 176 Y1
IOPIN 1984 176 Out
FLAG 1840 128 A1
IOPIN 1840 128 In
FLAG 1840 160 B1
IOPIN 1840 160 In
FLAG 1984 144 C
IOPIN 1984 144 Out
FLAG 1152 560 CLK
IOPIN 1152 560 In
FLAG 1504 560 CLK
IOPIN 1504 560 In
FLAG 1152 512 Y0
IOPIN 1152 512 In
FLAG 1504 512 Y1
IOPIN 1504 512 In
FLAG 1824 560 CLK
IOPIN 1824 560 In
FLAG 1824 512 C
IOPIN 1824 512 In
FLAG 208 80 PRESET
IOPIN 208 80 In
FLAG 208 608 RESET
IOPIN 208 608 In
FLAG 560 608 RESET
IOPIN 560 608 In
FLAG 560 224 RESET
IOPIN 560 224 In
FLAG 208 224 RESET
IOPIN 208 224 In
FLAG -992 400 0
FLAG -608 736 0
FLAG -608 640 RESET
IOPIN -608 640 Out
FLAG -992 320 ENABLE
IOPIN -992 320 Out
FLAG -992 736 0
FLAG -992 640 PRESET
IOPIN -992 640 Out
FLAG 1536 912 MOD0
IOPIN 1536 912 Out
FLAG 1536 944 MOD1
IOPIN 1536 944 Out
FLAG 1536 976 MOD2
IOPIN 1536 976 Out
FLAG 1536 1008 MOD3
IOPIN 1536 1008 Out
FLAG 1376 944 SEL0
IOPIN 1376 944 In
FLAG 1376 976 SEL1
IOPIN 1376 976 In
FLAG 560 80 PRESET
IOPIN 560 80 In
FLAG 560 464 PRESET
IOPIN 560 464 In
FLAG 208 464 PRESET
IOPIN 208 464 In
FLAG -992 -192 I0
IOPIN -992 -192 Out
FLAG -992 -16 I2
IOPIN -992 -16 Out
FLAG -608 -192 I1
IOPIN -608 -192 Out
FLAG -608 -16 I3
IOPIN -608 -16 Out
FLAG -992 -112 0
FLAG -608 -112 0
FLAG -608 64 0
FLAG -992 64 0
FLAG 128 512 I0
IOPIN 128 512 In
FLAG 480 512 I1
IOPIN 480 512 In
FLAG 480 128 I3
IOPIN 480 128 In
FLAG 128 128 I2
IOPIN 128 128 In
FLAG 1056 80 A0
IOPIN 1056 80 In
FLAG 1056 112 A1
IOPIN 1056 112 In
FLAG 1056 160 B0
IOPIN 1056 160 In
FLAG 1056 192 B1
IOPIN 1056 192 In
SYMBOL Digital\\dflop 208 80 R0
WINDOW 0 24 -19 Left 2
SYMATTR InstName A0
SYMBOL Digital\\dflop 560 80 R0
WINDOW 0 28 -16 Left 2
SYMATTR InstName A1
SYMBOL voltage -608 304 R0
WINDOW 123 0 0 Left 0
WINDOW 39 0 0 Left 0
SYMATTR InstName V1
SYMATTR Value PULSE(0 1 1u 0 0 1u 2u)
SYMBOL Digital\\dflop 208 464 R0
WINDOW 0 31 -19 Left 2
SYMATTR InstName B0
SYMBOL Digital\\dflop 560 464 R0
WINDOW 0 29 -18 Left 2
SYMATTR InstName B1
SYMBOL full_adder 1568 160 R0
SYMATTR InstName X1
SYMBOL full_adder 1904 160 R0
SYMATTR InstName X2
SYMBOL Digital\\dflop 1232 464 R0
SYMATTR InstName Y0
SYMBOL Digital\\dflop 1584 464 R0
SYMATTR InstName Y1
SYMBOL Digital\\dflop 1904 464 R0
SYMATTR InstName C
SYMBOL voltage -608 640 R0
WINDOW 123 0 0 Left 0
WINDOW 39 0 0 Left 0
SYMATTR InstName V2
SYMATTR Value PULSE(0 1 10u 0 0)
SYMBOL voltage -992 304 R0
WINDOW 123 0 0 Left 0
WINDOW 39 0 0 Left 0
SYMATTR InstName V3
SYMATTR Value 1
SYMBOL voltage -992 640 R0
WINDOW 123 0 0 Left 0
WINDOW 39 0 0 Left 0
SYMATTR InstName V4
SYMATTR Value PULSE(0 1 10u 0 0)
SYMBOL decoder_with_enable_2x4 1456 944 R0
SYMATTR InstName X3
SYMBOL voltage -992 -208 R0
WINDOW 123 0 0 Left 0
WINDOW 39 0 0 Left 0
SYMATTR InstName INPUT0
SYMATTR Value PULSE(0 1 105u 0 0 5u 10u)
SYMBOL voltage -992 -32 R0
WINDOW 123 0 0 Left 0
WINDOW 39 0 0 Left 0
SYMATTR InstName INPUT2
SYMATTR Value PULSE(0 1 120u 0 0 20u 40u)
SYMBOL voltage -608 -32 R0
WINDOW 123 0 0 Left 0
WINDOW 39 0 0 Left 0
SYMATTR InstName INPUT3
SYMATTR Value PULSE(0 1 140u 0 0 40u 80u)
SYMBOL voltage -608 -208 R0
WINDOW 123 0 0 Left 0
WINDOW 39 0 0 Left 0
SYMATTR InstName INPUT1
SYMATTR Value PULSE(0 1 110u 0 0 10u 20u)
SYMBOL comparator 1136 144 R0
SYMATTR InstName X4
TEXT 24 8 Left 6 ;A
TEXT 16 392 Left 6 ;B
TEXT 80 -160 Left 7 ;REGISTERS
TEXT 1560 16 Left 2 ;Semplice sommatore a 2 bit
TEXT 1152 360 Left 2 ;Salvo il valore di uscita dalla somma in un registro, salvo anche il C? SI
TEXT 1072 416 Left 6 ;R
TEXT -680 856 Left 2 !.tran 180u
TEXT 1224 824 Left 2 ;Decoder per decidere quale MOD abilitare
TEXT -1328 -304 Left 2 ;Delay iniziale delle onde quadre impostato a 100u di base. Bisogna capire come comportarsi con il tempo di salita o discesa
TEXT -1152 576 Left 2 ;Attenzione!! PRESET e RESET sono al momento scollegati per test di caso base
