Version 4
SHEET 1 880 692
FLAG -608 192 0
FLAG -608 112 CLK
IOPIN -608 112 Out
FLAG 128 176 CLK
IOPIN 128 176 In
FLAG 480 176 CLK
IOPIN 480 176 In
FLAG 288 128 A0
IOPIN 288 128 Out
FLAG 640 128 A1
IOPIN 640 128 Out
FLAG 128 560 CLK
IOPIN 128 560 In
FLAG 480 560 CLK
IOPIN 480 560 In
FLAG 288 512 B0
IOPIN 288 512 Out
FLAG 640 512 B1
IOPIN 640 512 Out
SYMBOL Digital\\dflop 208 80 R0
SYMATTR InstName A0
SYMBOL Digital\\dflop 560 80 R0
SYMATTR InstName A1
SYMBOL voltage -608 96 R0
WINDOW 123 0 0 Left 0
WINDOW 39 0 0 Left 0
SYMATTR InstName V1
SYMATTR Value PULSE(0 1 10u 0 0 10u 20u)
SYMBOL Digital\\dflop 208 464 R0
SYMATTR InstName B0
SYMBOL Digital\\dflop 560 464 R0
SYMATTR InstName B1
TEXT 16 40 Left 6 ;A
TEXT 16 424 Left 6 ;B
RECTANGLE Normal 768 0 0 304
RECTANGLE Normal 768 384 0 688
