Version 4
SHEET 1 3164 1080
WIRE 1424 128 1312 128
WIRE 1168 176 1120 176
WIRE 1424 176 1424 128
WIRE 1504 176 1424 176
FLAG -624 208 0
FLAG -624 128 CLK
IOPIN -624 128 Out
FLAG 128 176 CLK
IOPIN 128 176 In
FLAG 480 176 CLK
IOPIN 480 176 In
FLAG 288 128 A0
IOPIN 288 128 Out
FLAG 640 128 A1
IOPIN 640 128 Out
FLAG 128 560 CLK
IOPIN 128 560 In
FLAG 480 560 CLK
IOPIN 480 560 In
FLAG 288 512 B0
IOPIN 288 512 Out
FLAG 640 512 B1
IOPIN 640 512 Out
FLAG 1168 112 A0
IOPIN 1168 112 In
FLAG 1168 144 B0
IOPIN 1168 144 In
FLAG 1312 160 Y0
IOPIN 1312 160 Out
FLAG 1648 160 Y1
IOPIN 1648 160 Out
FLAG 1504 112 A1
IOPIN 1504 112 In
FLAG 1504 144 B1
IOPIN 1504 144 In
FLAG 1648 128 C
IOPIN 1648 128 Out
FLAG 1152 560 CLK
IOPIN 1152 560 In
FLAG 1504 560 CLK
IOPIN 1504 560 In
FLAG 1152 512 Y0
IOPIN 1152 512 In
FLAG 1504 512 Y1
IOPIN 1504 512 In
FLAG 1824 560 CLK
IOPIN 1824 560 In
FLAG 1824 512 C
IOPIN 1824 512 In
FLAG 208 80 PRESET
IOPIN 208 80 In
FLAG 208 608 RESET
IOPIN 208 608 In
FLAG 560 608 RESET
IOPIN 560 608 In
FLAG 560 224 RESET
IOPIN 560 224 In
FLAG 208 224 RESET
IOPIN 208 224 In
FLAG -1008 208 0
FLAG -624 432 0
FLAG -624 352 RESET
IOPIN -624 352 Out
FLAG -1008 128 ENABLE
IOPIN -1008 128 Out
FLAG -1008 432 0
FLAG -1008 352 PRESET
IOPIN -1008 352 Out
FLAG 1536 912 MOD0
IOPIN 1536 912 Out
FLAG 1536 944 MOD1
IOPIN 1536 944 Out
FLAG 1536 976 MOD2
IOPIN 1536 976 Out
FLAG 1536 1008 MOD3
IOPIN 1536 1008 Out
FLAG 1376 944 SEL0
IOPIN 1376 944 In
FLAG 1376 976 SEL1
IOPIN 1376 976 In
FLAG 560 80 PRESET
IOPIN 560 80 In
FLAG 560 464 PRESET
IOPIN 560 464 In
FLAG 208 464 PRESET
IOPIN 208 464 In
SYMBOL Digital\\dflop 208 80 R0
WINDOW 0 24 -19 Left 2
SYMATTR InstName A0
SYMBOL Digital\\dflop 560 80 R0
WINDOW 0 28 -16 Left 2
SYMATTR InstName A1
SYMBOL voltage -624 112 R0
WINDOW 123 0 0 Left 0
WINDOW 39 0 0 Left 0
SYMATTR InstName V1
SYMATTR Value PULSE(0 1 10u 0 0 10u 20u)
SYMBOL Digital\\dflop 208 464 R0
WINDOW 0 31 -19 Left 2
SYMATTR InstName B0
SYMBOL Digital\\dflop 560 464 R0
WINDOW 0 29 -18 Left 2
SYMATTR InstName B1
SYMBOL full_adder 1232 144 R0
SYMATTR InstName X1
SYMBOL full_adder 1568 144 R0
SYMATTR InstName X2
SYMBOL Digital\\dflop 1232 464 R0
SYMATTR InstName Y0
SYMBOL Digital\\dflop 1584 464 R0
SYMATTR InstName Y1
SYMBOL Digital\\dflop 1904 464 R0
SYMATTR InstName C
SYMBOL voltage -624 336 R0
WINDOW 123 0 0 Left 0
WINDOW 39 0 0 Left 0
SYMATTR InstName V2
SYMATTR Value 0
SYMBOL voltage -1008 112 R0
WINDOW 123 0 0 Left 0
WINDOW 39 0 0 Left 0
SYMATTR InstName V3
SYMATTR Value 1
SYMBOL voltage -1008 336 R0
SYMATTR InstName V4
SYMBOL decoder_with_enable_2x4 1456 944 R0
SYMATTR InstName X3
TEXT 24 8 Left 6 ;A
TEXT 16 392 Left 6 ;B
TEXT 80 -160 Left 7 ;REGISTERS
TEXT 1224 0 Left 2 ;Semplice sommatore a 2 bit
TEXT 1152 360 Left 2 ;Salvo il valore di uscita dalla somma in un registro, salvo anche il C???? Per adesso si
TEXT 1072 416 Left 6 ;R
TEXT -680 744 Left 2 !.tran 80u
TEXT 1224 824 Left 2 ;Decoder per decidere quale MOD abilitare
