Version 4
SHEET 1 2144 692
WIRE 1424 128 1312 128
WIRE 1168 176 1120 176
WIRE 1424 176 1424 128
WIRE 1504 176 1424 176
FLAG -608 192 0
FLAG -608 112 CLK
IOPIN -608 112 Out
FLAG 128 176 CLK
IOPIN 128 176 In
FLAG 480 176 CLK
IOPIN 480 176 In
FLAG 288 128 A0
IOPIN 288 128 Out
FLAG 640 128 A1
IOPIN 640 128 Out
FLAG 128 560 CLK
IOPIN 128 560 In
FLAG 480 560 CLK
IOPIN 480 560 In
FLAG 288 512 B0
IOPIN 288 512 Out
FLAG 640 512 B1
IOPIN 640 512 Out
FLAG 1168 112 A0
IOPIN 1168 112 In
FLAG 1168 144 B0
IOPIN 1168 144 In
FLAG 1312 160 Y0
IOPIN 1312 160 Out
FLAG 1648 160 Y1
IOPIN 1648 160 Out
FLAG 1504 112 A1
IOPIN 1504 112 In
FLAG 1504 144 B1
IOPIN 1504 144 In
FLAG 1648 128 C
IOPIN 1648 128 Out
FLAG 1152 560 CLK
IOPIN 1152 560 In
FLAG 1504 560 CLK
IOPIN 1504 560 In
FLAG 1152 512 Y0
IOPIN 1152 512 In
FLAG 1504 512 Y1
IOPIN 1504 512 In
FLAG 1824 560 CLK
IOPIN 1824 560 In
FLAG 1824 512 C
IOPIN 1824 512 In
SYMBOL Digital\\dflop 208 80 R0
SYMATTR InstName A0
SYMBOL Digital\\dflop 560 80 R0
SYMATTR InstName A1
SYMBOL voltage -608 96 R0
WINDOW 123 0 0 Left 0
WINDOW 39 0 0 Left 0
SYMATTR InstName V1
SYMATTR Value PULSE(0 1 10u 0 0 10u 20u)
SYMBOL Digital\\dflop 208 464 R0
SYMATTR InstName B0
SYMBOL Digital\\dflop 560 464 R0
SYMATTR InstName B1
SYMBOL full_adder 1232 144 R0
SYMATTR InstName X1
SYMBOL full_adder 1568 144 R0
SYMATTR InstName X2
SYMBOL Digital\\dflop 1232 464 R0
SYMATTR InstName Y0
SYMBOL Digital\\dflop 1584 464 R0
SYMATTR InstName Y1
SYMBOL Digital\\dflop 1904 464 R0
SYMATTR InstName C
TEXT 16 40 Left 6 ;A
TEXT 16 424 Left 6 ;B
TEXT 80 -160 Left 7 ;REGISTERS
TEXT 1224 0 Left 2 ;Semplice sommatore a 2 bit
TEXT 1152 360 Left 2 ;Salvo il valore di uscita dalla somma in un registro, salvo anche il C???? Per adesso si
TEXT 1072 416 Left 6 ;R
RECTANGLE Normal 768 0 0 304
RECTANGLE Normal 768 384 0 688
